---- qbsp / ericw-tools v0.18.1 ----
Input file: dusk.map
Output file: dusk.bsp

---- LoadMapFile ----
         2257 faces
          369 brushes
           42 entities
           21 unique texnames
         1148 texinfo

Opened WAD: C:/Users/Eric/Documents/GitHub/Dusk-MyQuakeMap/wads/hipnotic.wad
Opened WAD: C:/Users/Eric/Documents/GitHub/Dusk-MyQuakeMap/wads/rogue.wad
Processing hull 0...
---- Brush_LoadEntity ----
*** WARNING 08: Point (272.625 -125.960 201.000) off plane by 0.0001
*** WARNING 08: Point (272.625 -125.960 240.201) off plane by 0.0001
          365 brushes
          905 planes
---- CSGFaces ----
         2233 brushfaces
         4842 csgfaces
         4504 mergedfaces
---- SolidBSP ----
        10071 split nodes
         4054 solid leafs
         5718 empty leafs
          300 water leafs
            0 detail leafs
            0 detail illusionary leafs
            0 detail fence leafs
            0 illusionary visblocker leafs
        18139 leaffaces
        16690 nodefaces
---- Portalize ----
         6018 vis leafs
         6018 vis clusters
        18602 vis portals
---- FillOutside ----
*** WARNING 10: Reached occupant at (-402 -420 344), no filling performed.
Leak file written to dusk.pts
---- MakeFaceEdges ----
---- GrowRegions ----
Processing hull 1...
*** WARNING 08: Point (272.625 -125.960 201.000) off plane by 0.0001
*** WARNING 08: Point (272.625 -125.960 240.201) off plane by 0.0001
*** WARNING 08: Point (288.625 -141.960 169.000) off plane by 0.0001
*** WARNING 08: Point (288.625 -141.960 264.201) off plane by 0.0001
Processing hull 2...
*** WARNING 08: Point (272.625 -125.960 201.000) off plane by 0.0001
*** WARNING 08: Point (272.625 -125.960 240.201) off plane by 0.0001
*** WARNING 08: Point (304.625 -157.960 137.000) off plane by 0.0001
*** WARNING 08: Point (304.625 -157.960 264.201) off plane by 0.0001
*** WARNING 16: Texture 128_honey_1 not found
*** WARNING 16: Texture 128_grey_1 not found
*** WARNING 16: Texture __TB_empty not found
*** WARNING 16: Texture *tele01 not found
---- WriteBSPFile ----
Wrote dusk.bsp
         1925 planes            38500
        19052 vertexes         228624
        10095 nodes            242280
         1051 texinfo           42040
        16714 faces            334280
         4700 clipnodes         37600
         6043 leafs            169204
        18163 marksurfaces      36326
        66809 surfedges        267236
        41045 edges            164180
           21 textures         158528
              lightdata             0
              visdata               0
              entdata            2473

0.928 seconds elapsed
Peak memory usage: 67228230 (64.1M)
