---- qbsp / ericw-tools v0.18.1 ----
Input file: dusk.map
Output file: dusk.bsp

---- LoadMapFile ----
         2938 faces
          478 brushes
          107 entities
           19 unique texnames
         1623 texinfo

Opened WAD: C:/Users/Eric/Documents/GitHub/Dusk-MyQuakeMap/wads/hipnotic.wad
Opened WAD: C:/Users/Eric/Documents/GitHub/Dusk-MyQuakeMap/wads/rogue.wad
Processing hull 0...
---- Brush_LoadEntity ----
*** WARNING 08: Point (272.625 -125.960 201.000) off plane by 0.0001
*** WARNING 08: Point (272.625 -125.960 240.201) off plane by 0.0001
          474 brushes
         1400 planes
---- CSGFaces ----
         2914 brushfaces
         6247 csgfaces
         5839 mergedfaces
---- SolidBSP ----
        14710 split nodes
         5834 solid leafs
         8349 empty leafs
          528 water leafs
            0 detail leafs
            0 detail illusionary leafs
            0 detail fence leafs
            0 illusionary visblocker leafs
        25486 leaffaces
        22989 nodefaces
---- Portalize ----
*** WARNING 12: New portal was clipped away in CutNodePortals_r near (451.380 -322.266 410.000)
         8877 vis leafs
         8877 vis clusters
        28231 vis portals
---- FillOutside ----
*** WARNING 10: Reached occupant at (-433 -417 91), no filling performed.
Leak file written to dusk.pts
---- MakeFaceEdges ----
---- GrowRegions ----
Processing hull 1...
*** WARNING 08: Point (272.625 -125.960 201.000) off plane by 0.0001
*** WARNING 08: Point (272.625 -125.960 240.201) off plane by 0.0001
*** WARNING 08: Point (288.625 -141.960 169.000) off plane by 0.0001
*** WARNING 08: Point (288.625 -141.960 264.201) off plane by 0.0001
Processing hull 2...
*** WARNING 08: Point (272.625 -125.960 201.000) off plane by 0.0001
*** WARNING 08: Point (272.625 -125.960 240.201) off plane by 0.0001
*** WARNING 08: Point (304.625 -157.960 137.000) off plane by 0.0001
*** WARNING 08: Point (304.625 -157.960 264.201) off plane by 0.0001
*** WARNING 16: Texture 128_grey_1 not found
---- WriteBSPFile ----
Wrote dusk.bsp
         2879 planes            57580
        26317 vertexes         315804
        14734 nodes            353616
         1493 texinfo           59720
        23013 faces            460260
         6490 clipnodes         51920
         8902 leafs            249256
        25510 marksurfaces      51020
        92062 surfedges        368248
        56752 edges            227008
           19 textures         164000
              lightdata             0
              visdata               0
              entdata            6990

1.256 seconds elapsed
Peak memory usage: 89713220 (85.6M)
